@<TRIPOS>MOLECULE
MOL
    3     2     1     0     0
SMALL
resp


@<TRIPOS>ATOM
      1 O1           0.0000     0.0000     0.120225 oh         1 MOL	  -0.782624
      2 H1           0.0000	0.757093  -0.480899 ho         1 MOL	   0.391312
      3 H2           0.0000    -0.757093  -0.480899 ho         1 MOL	   0.391312
@<TRIPOS>BOND
     1     1     2 1   
     2     1     3 1   
@<TRIPOS>SUBSTRUCTURE
     1 MOL         1 TEMP              0 ****  ****    0 ROOT
